FoamFile
{
    version     2.0;
    format      ascii;
    class       dictionary;
    object      briscolaMeshDict;
}

vertices
(
    (-0.5 0 0)
    ( 0.5 0 0)
    (-0.5 2 0)
    ( 0.5 2 0)

    (-0.5 0 0.1)
    ( 0.5 0 0.1)
    (-0.5 2 0.1)
    ( 0.5 2 0.1)
);

bricks
(
    0
    {
        vertices    (0 4 2 6 1 5 3 7);
        N           (64 128 1);
    }
);

edges
();

patches
(
    sides
    {
        type    patch;

        faces
        (
            (0 2 4 6)
            (1 3 5 7)
        );
    }

    bottomAndTop
    {
        type    patch;

        faces
        (
            (0 1 4 5)
            (2 3 6 7)
        );
    }

    empties
    {
        type    empty;

        faces
        (
            (0 1 2 3)
            (4 5 6 7)
        );
    }

);

decomposition
{
    type    manual;

    brickDecompositions
    (
        (2 2 1)
    );
}
