FoamFile
{
    version     2.0;
    format      ascii;
    class       dictionary;
    object      f;
}

initialCondition
{

}

boundaryConditions
{
    default
    {
        type    Dirichlet;
        values  ((1 2 3 4) (1 2 3 4) (1 2 3 4));
    }
}
