FoamFile
{
    version     2.0;
    format      ascii;
    class       dictionary;
    object      briscolaSchemesDict;
}

ddtSchemes
{
    default Euler;
}

laplacianSchemes
{
    default linearGauss;
}

divergenceSchemes
{
    default linearGauss;
}

gradientSchemes
{
    default linearGauss;
}

faceGradientSchemes
{
    default linear;
}

faceFluxSchemes
{
    default linear;
}
