FoamFile
{
    version     2.0;
    format      ascii;
    class       dictionary;
    object      briscolaSchemesDict;
}

U
{
    type        MG;
    relTol      1e-5;
    tolerance   1e-8;
    maxIter     100;
}

p
{
    type        MG;
    relTol      1e-5;
    tolerance   1e-8;
    maxIter     100;
    coarseLevel 3;
}
