FoamFile
{
    version     2.0;
    format      ascii;
    class       dictionary;
    location    "system";
    object      controlDict;
}

startFrom       latestTime;

startTime       0;

stopAt          endTime;

endTime         30;

deltaT          0.01;

writeControl    adjustableRunTime;

writeInterval   10;

writeFormat     binary;

writePrecision  6;

timeFormat      general;

timePrecision   6;

runTimeModifiable true;

adjustTimeStep  false;

maxCo           0.5;

functions
{
    x
    {
        type            lineSample;
        writeControl    writeTime;
        start           (0 0.5 0.05);
        end             (1 0.5 0.05);
        N               100;
        fields          (p U);
    }

    y
    {
        type            lineSample;
        writeControl    writeTime;
        start           (0.5 0 0.05);
        end             (0.5 1 0.05);
        N               100;
        fields          (p U);
    }
}
