FoamFile
{
    version     2.0;
    format      ascii;
    class       dictionary;
    object      briscolaVofDict;
}

type    splitAdvection;

normalScheme
{
    type    MYC;
}

curvatureScheme
{
    type    SHF;
}
