FoamFile
{
    version     2.0;
    format      ascii;
    class       dictionary;
    object      briscolaColocatedDict;
}

nu      0.0002;
source  (0 0 0);
