FoamFile
{
    version     2.0;
    format      ascii;
    class       dictionary;
    object      b;
}

boundaryConditions
{
    default
    {
        type    Dirichlet;
        value   0;
    }

    left
    {
        type    Dirichlet;
        value   0;
    }

    right
    {
        type    Dirichlet;
        value   0;
    }

    bottom
    {
        type    Dirichlet;
        value   0;
    }

    top
    {
        type    Dirichlet;
        value   0;
    }

    back
    {
        type    Dirichlet;
        value   0;
    }

    front
    {
        type    Dirichlet;
        value   0;
    }
}