FoamFile
{
    version     2.0;
    format      ascii;
    class       dictionary;
    object      briscolaTwoPhaseDict;
}

type    twoPhaseVof;

g       (0 0 -0.44);

rho1    1.0;
rho2    0.1;
mu1     1.88e-4;
mu2     1.88e-5;

normalScheme
{
    type    MYC;
}

surfaceTensionScheme
{
    type    Brackbill;

    curvatureScheme
    {
        type    SHF;
    }

    sigma   0.025;
}

vof
{
    type    splitAdvection;
}
