FoamFile
{
    version     2.0;
    format      ascii;
    class       dictionary;
    object      briscolaStaggeredDict;
}

nu      1.0;
source  (0 0 0);

ImmersedBoundary
{
    cylinder1
    {
        type    cylinder;
        start   (0.5 0.5 0);
        end     (0.5 0.5 1);
        radius  0.5;
    }

    cylinder2
    {
        type    cylinder;
        start   (0 0.5 0.5);
        end     (1 0.5 0.5);
        radius  0.5;
    }

    sphere1
    {
        type    sphere;
        center  (1 1 1);
        radius  0.01;
    }
}
