FoamFile
{
    version     2.0;
    format      ascii;
    class       dictionary;
    object      briscolaSinglePhaseDict;
}

nu      1.0;
source  (0 0 0);
sourceCoeff (0 0 0);
