FoamFile
{
    version     2.0;
    format      ascii;
    class       dictionary;
    object      f;
}

initialCondition
{

}

boundaryConditions
{
    default
    {
        type    Dirichlet;
        value   0;
    }
}
