FoamFile
{
    version     2.0;
    format      ascii;
    class       dictionary;
    object      f;
}

initialCondition
{

}

boundaryConditions
{
    default
    {
        type    Dirichlet;
        values  ((2 2 2 2 2 2 2) (2 2 2 2 2 2 2) (2 2 2 2 2 2 2));
    }
}
