FoamFile
{
    version     2.0;
    format      ascii;
    class       dictionary;
    object      g;
}

boundaryConditions
{
    default
    {
        type        Neumann;
        gradient    (0 0 0);
    }
}
