FoamFile
{
    version     2.0;
    format      ascii;
    class       dictionary;
    object      g;
}

initialCondition
{

}

boundaryConditions
{
    default
    {
        type        Neumann;
        gradients   ((0 0 0 0 0 0));
    }
}
