FoamFile
{
    version     2.0;
    format      ascii;
    class       dictionary;
    object      briscolaSchemesDict;
}

U
{
    type        iterative;
    relTol      0.01;
    tolerance   1e-6;
    maxIter     100;
}

p
{
    type        MG;
    relTol      0.01;
    tolerance   1e-8;
    maxIter     100;
}
