FoamFile
{
    version     2.0;
    format      ascii;
    class       dictionary;
    object      alpha;
}

boundaryConditions
{
    walls
    {
        type        Neumann;
        gradient    0;
    }

    inlet
    {
        type        periodic;
    }

    outlet
    {
        type        periodic;
    }
}
