FoamFile
{
    version     2.0;
    format      ascii;
    class       dictionary;
    object      T;
}

initialCondition
{

}

boundaryConditions
{
    default
    {
        type        Dirichlet;
        values      (0 0 0);
    }

    inlet
    {
        type        Dirichlet;
        values      (0 0 0);
    }

    outlet
    {
        type        Dirichlet;
        values      (0 0 0);
    }
}
