FoamFile
{
    version     2.0;
    format      ascii;
    class       dictionary;
    object      briscolaMeshDict;
}

vertices
(
    (0 0 0)
    (0 0 1)
    (0 0 2)

    (0 1 0)
    (0 1 1)
    (0 1 2)

    (0 2 0)
    (0 2 1)
    (0 2 2)

    (1 0 0)
    (1 0 1)
    (1 0 2)

    (1 1 0)
    (1 1 1)
    (1 1 2)

    (1 2 0)
    (1 2 1)
    (1 2 2)

    (2 0 0)
    (2 0 1)
    (2 0 2)

    (2 1 0)
    (2 1 1)
    (2 1 2)

    (2 2 0)
    (2 2 1)
    (2 2 2)
);

bricks
(
    // Note: some brick's local coordinates are intentionally misaligned with
    // the global coordinates. Also, the ordering of bricks is intentionally
    // mixed. Coordinate order and brick position are indicated.

    // Coordinate order z,y,x, brick position (0,0,0)

    0
    {
        vertices    (((1 10)(4 13))((0 9)(3 12)));
        N           (24 16 16);
    }

    // Coordinate order y,x,z, brick position (0,0,1)

    1
    {
        vertices    (((4 5)(13 14))((1 2)(10 11)));
        N           (16 16 24);
    }

    // Coordinate order x,y,z, brick position (0,1,1)

    2
    {
        vertices    (((4 5)(7 8))((13 14)(16 17)));
        N           (16 16 24);
    }

    // Coordinate order x,y,z, brick position (0,1,0)

    3
    {
        vertices    (((3 4)(6 7))((12 13)(15 16)));
        N           (16 16 24);
    }

    // Coordinate order x,y,z, brick position (1,0,1)

    4
    {
        vertices    (((10 11)(13 14))((19 20)(22 23)));
        N           (16 16 24);
    }

    // Coordinate order y,z,x, brick position (1,1,0)

    5
    {
        vertices    (((12 21)(13 22))((15 24)(16 25)));
        N           (16 24 16);
    }

    // Coordinate order x,y,z, brick position (1,1,1)

    6
    {
        vertices    (((13 14)(16 17))((22 23)(25 26)));
        N           (16 16 24);
    }

    // Coordinate order x,y,z, brick position (1,0,0)

    7
    {
        vertices    (((9 10)(12 13))((18 19)(21 22)));
        N           (16 16 24);
    }
);

edges
();

patches
();

decomposition
{
    type    manual;

    // Bricks have two processors in global z-direction, which is the first
    // coordinate for brick 0, the second coordinate for brick 5 and the third
    // coordinate for all other bricks.

    brickDecompositions
    (
        (2 1 1)
        (1 1 2)
        (1 1 2)
        (1 1 2)
        (1 1 2)
        (1 2 1)
        (1 1 2)
        (1 1 2)
    );
}
