FoamFile
{
    version     2.0;
    format      ascii;
    class       dictionary;
    object      briscolaMeshDict;
}

vertices
(
    (-0.3 -0.3 0)
    (0.3 -0.3 0)
    (-0.3 0.3 0)
    (0.3 0.3 0)
    (-0.7071068 -0.7071068 0)
    (0.7071068 -0.7071068 0)
    (-0.7071068 0.7071068 0)
    (0.7071068 0.7071068 0)

    (-0.3 -0.3 15.707963)
    (0.3 -0.3 15.707963)
    (-0.3 0.3 15.707963)
    (0.3 0.3 15.707963)
    (-0.7071068 -0.7071068 15.707963)
    (0.7071068 -0.7071068 15.707963)
    (-0.7071068 0.7071068 15.707963)
    (0.7071068 0.7071068 15.707963)
);

bricks
(
    0
    {
        vertices    (0 8 2 10 1 9 3 11);
        N           (4 4 16);
        grading     geometric (1 1 1);
    }

    1
    {
        vertices    (4 12 0 8 5 13 1 9);
        N           (4 8 16);
        grading     geometric (1 4 1);
    }

    2
    {
        vertices    (4 12 6 14 0 8 2 10);
        N           (8 4 16);
        grading     geometric (4 1 1);
    }

    3
    {
        vertices    (1 9 3 11 5 13 7 15);
        N           (8 4 16);
        grading     geometric (0.25 1 1);
    }

    4
    {
        vertices    (2 10 6 14 3 11 7 15);
        N           (4 8 16);
        grading     geometric (1 0.25 1);
    }
);

edges
(
    (4 5)
    {
        type    arc;
        point   (0 -1.0 0);
    }

    (5 7)
    {
        type    arc;
        point   (1.0 0 0);
    }

    (7 6)
    {
        type    arc;
        point   (0 1.0 0);
    }

    (6 4)
    {
        type    arc;
        point   (-1.0 0 0);
    }

    (12 13)
    {
        type    arc;
        point   (0 -1.0 15.707963);
    }

    (13 15)
    {
        type    arc;
        point   (1.0 0 15.707963);
    }

    (14 15)
    {
        type    arc;
        point   (0 1.0 15.707963);
    }

    (14 12)
    {
        type    arc;
        point   (-1.0 0 15.707963);
    }
);

patches
();

decomposition
{
    type    manual;

    brickDecompositions
    (
        (1 1 1)
        (1 1 1)
        (1 1 1)
        (1 1 1)
        (1 1 1)
    );
}
