FoamFile
{
    version     2.0;
    format      ascii;
    class       dictionary;
    object      briscolaMeshDict;
}

vertices
(
    (-0.1 -0.1 0)
    (0.1 -0.1 0)
    (-0.1 0.1 0)
    (0.1 0.1 0)
    (-0.3535534 -0.3535534 0)
    (0.3535534 -0.3535534 0)
    (-0.3535534 0.3535534 0)
    (0.3535534 0.3535534 0)

    (-0.1 -0.1 1.0)
    (0.1 -0.1 1.0)
    (-0.1 0.1 1.0)
    (0.1 0.1 1.0)
    (-0.3535534 -0.3535534 1.0)
    (0.3535534 -0.3535534 1.0)
    (-0.3535534 0.3535534 1.0)
    (0.3535534 0.3535534 1.0)
);

// Do not align bricks with data structure because some tests have local
// coordinate systems hard-coded

dataAlignment false;

bricks
(
    0
    {
        vertices    (0 8 2 10 1 9 3 11);
        N           (8 8 16);
    }

    1
    {
        vertices    (4 12 0 8 5 13 1 9);
        N           (8 8 16);
    }

    2
    {
        vertices    (4 12 6 14 0 8 2 10);
        N           (8 8 16);
    }

    3
    {
        vertices    (1 9 3 11 5 13 7 15);
        N           (8 8 16);
    }

    4
    {
        vertices    (2 10 6 14 3 11 7 15);
        N           (8 8 16);
    }
);

edges
(
    (4 5)
    {
        type    arc;
        point   (0 -0.5 0);
    }

    (5 7)
    {
        type    arc;
        point   (0.5 0 0);
    }

    (7 6)
    {
        type    arc;
        point   (0 0.5 0);
    }

    (6 4)
    {
        type    arc;
        point   (-0.5 0 0);
    }

    (12 13)
    {
        type    arc;
        point   (0 -0.5 1.0);
    }

    (13 15)
    {
        type    arc;
        point   (0.5 0 1.0);
    }

    (14 15)
    {
        type    arc;
        point   (0 0.5 1.0);
    }

    (14 12)
    {
        type    arc;
        point   (-0.5 0 1.0);
    }
);

patches
();

decomposition
{
    type    manual;

    brickDecompositions
    (
        (1 1 1)
        (1 1 1)
        (1 1 1)
        (1 1 1)
        (1 1 1)
    );
}
