FoamFile
{
    version     2.0;
    format      ascii;
    class       dictionary;
    object      briscolaMeshDict;
}

vertices
(
    (0 0 0)
    (1 0 0)
    (0 1 0)
    (1 1 0)

    (0 0 1)
    (1 0 1)
    (0 1 1)
    (1 1 1)
);

// Do not align bricks with data structure because some tests have local
// coordinate systems hard-coded

dataAlignment false;

bricks
(
    0
    {
        vertices    (0 4 2 6 1 5 3 7);
        N           (4 4 4);
    }
);

edges
();

patches
();

decomposition
{
    type    manual;

    brickDecompositions
    (
        (2 2 1)
    );
}
