FoamFile
{
    version     2.0;
    format      ascii;
    class       dictionary;
    object      briscolaMeshDict;
}

vertices
(
    (0 0 0)
    (0 0 1)
    (0 0 2)

    (0 1 0)
    (0 1 1)
    (0 1 2)

    (0 2 0)
    (0 2 1)
    (0 2 2)

    (1 0 0)
    (1 0 1)
    (1 0 2)

    (1 1 0)
    (1 1 1)
    (1 1 2)

    (1 2 0)
    (1 2 1)
    (1 2 2)

    (2 0 0)
    (2 0 1)
    (2 0 2)

    (2 1 0)
    (2 1 1)
    (2 1 2)

    (2 2 0)
    (2 2 1)
    (2 2 2)
);

// Do not align bricks with data structure because some tests have local
// coordinate systems hard-coded

dataAlignment false;

bricks
(
    // Coordinate order z,y,x, brick position (0,0,0)

    0
    {
        vertices    (1 10 4 13 0 9 3 12);
        N           (12 8 8);
    }

    // Coordinate order x,y,z, brick position (0,1,0)

    1
    {
        vertices    (3 4 6 7 12 13 15 16);
        N           (8 8 12);
    }
);

edges
();

patches
();

decomposition
{
    type    manual;

    brickDecompositions
    (
        (2 1 1)
        (1 1 2)
    );
}
