FoamFile
{
    version     2.0;
    format      ascii;
    class       dictionary;
    object      U;
}

boundaryConditions
{
    top
    {
        type        Dirichlet;
        value       (1 0 0);
    }

    bottom
    {
        type        noSlip;
    }

    inlet
    {
        type        periodic;
    }

    outlet
    {
        type        periodic;
    }

    aft
    {
        type        periodic;
    }

    fore
    {
        type        periodic;
    }
}
