FoamFile
{
    version     2.0;
    format      ascii;
    class       dictionary;
    object      briscolaStaggeredDict;
}

nu          0.005;
source      (0 0 0);
sourceCoeff (0 0 0);
