FoamFile
{
    version     2.0;
    format      ascii;
    class       dictionary;
    object      T;
}

initialCondition
{

}

boundaryConditions
{
    walls
    {
        type        Dirichlet;
        values      (0 0 0);
    }

    empties
    {
        type        empty;
    }
}
