FoamFile
{
    version     2.0;
    format      ascii;
    class       dictionary;
    object      p;
}

boundaryConditions
{
    top
    {
        type        Neumann;
        gradients   (0);
    }

    bottom
    {
        type        Neumann;
        gradients   (0);
    }

    inlet
    {
        type        periodic;
    }

    outlet
    {
        type        periodic;
    }

    aft
    {
        type        periodic;
    }

    fore
    {
        type        periodic;
    }
}