FoamFile
{
    version     2.0;
    format      ascii;
    class       dictionary;
    object      f;
}

boundaryConditions
{
    walls
    {
        type        Neumann;
        gradient    0;
    }

    inlet
    {
        type        Dirichlet;
        value       1;
    }

    outlet
    {
        type        Dirichlet;
        value       0;
    }

    frontAndBack
    {
        type        Dirichlet;
        value       0.5;
    }
}
