FoamFile
{
    version     2.0;
    format      ascii;
    class       dictionary;
    object      briscolaMeshDict;
}

vertices
(
    (-10 -9 0)
    (30 -9 0)
    (-10 9 0)
    (30 9 0)

    (-10 -9 0.1)
    (30 -9 0.1)
    (-10 9 0.1)
    (30 9 0.1)
);

bricks
(
    0
    {
        vertices    (0 4 2 6 1 5 3 7);
        N           (128 64 1);
    }
);

edges
();

patches
(
    walls
    {
        type    patch;

        faces
        (
            (2 7 3 6)
            (0 1 5 4)
        );
    }

    inlet
    {
        type    patch;

        faces
        (
            (0 4 2 6)
        );
    }

    outlet
    {
        type    patch;

        faces
        (
            (1 5 3 7)
        );
    }

    empties
    {
        type    empty;

        faces
        (
            (0 1 2 3)
            (4 5 6 7)

        );
    }

);


immersedBoundaries
{
    cylinder
    {
        cylinder1
        {
            type    cylinder;
            start   (0 0 -1);
            end     (0 0 1);
            radius  0.5;
        }
    }
}

decomposition
{
    type    manual;

    brickDecompositions
    (
        (2 2 1)
    );
}
