FoamFile
{
    version     2.0;
    format      ascii;
    class       dictionary;
    object      alpha;
}

boundaryConditions
{
    default
    {
        type        Neumann;
        gradient    0;
    }
}
