FoamFile
{
    version     2.0;
    format      ascii;
    class       dictionary;
    object      p;
}

initialCondition
{

}

boundaryConditions
{
    walls
    {
        type        Neumann;
        gradients   (0);
    }

    movingWall
    {
        type        Neumann;
        gradients   (0);
    }
}
