FoamFile
{
    version     2.0;
    format      ascii;
    class       dictionary;
    object      U;
}

boundaryConditions
{
    default
    {
        type        noSlip;
    }

    inlet
    {
        type        periodic;
    }

    outlet
    {
        type        periodic;
    }
}
