FoamFile
{
    version     2.0;
    format      ascii;
    class       dictionary;
    object      p;
}

boundaryConditions
{
    walls
    {
        type        Neumann;
        gradient    0;
    }

    inlet
    {
        type        Neumann;
        gradient    0;
    }

    outlet
    {
        type        Dirichlet;
        value       0;
    }

    empties
    {
        type        empty;
    }

    cylinder
    {
        type        empty;
    }
}
