FoamFile
{
    version     2.0;
    format      ascii;
    class       dictionary;
    object      briscolaColocatedDict;
}

nu      0.005555;
source  (0 0 1);
