FoamFile
{
    version     2.0;
    format      ascii;
    class       dictionary;
    object      briscolaLaplacianDict;
}

lambda  1;
source  1;
