FoamFile
{
    version     2.0;
    format      ascii;
    class       dictionary;
    object      briscolaSchemesDict;
}

ddtSchemes
{
    ddt(x)
    {
        type    Euler;
    }
}

laplacianSchemes
{
    laplacian(x)
    {
        type    linearGauss;
    }
}