FoamFile
{
    version     2.0;
    format      ascii;
    class       dictionary;
    object      briscolaStaggeredDict;
}

nu          0.01;