FoamFile
{
    version     2.0;
    format      ascii;
    class       dictionary;
    location    "constant";
    object      fvOptions;
}

heatSource
{
    type            scalarSemiImplicitSource;

    volumeMode      specific;

    selectionMode   all;

    injectionRateSuSp
    {
        T           (1.0 0);
    }
}
