FoamFile
{
    version     2.0;
    format      ascii;
    class       dictionary;
    location    "system";
    object      fvSolution;
}

solvers
{
    T
    {
        solver      GAMG;
        smoother    GaussSeidel;
        tolerance   1e-8;
        relTol      0.01;
    }
}

SIMPLE
{
    lambda  1;
    source  1;
}
