FoamFile
{
    version     2.0;
    format      ascii;
    class       dictionary;
    object      briscolaSchemesDict;
}

U
{
    type        iterative;
    relTol      1e-3;
    tolerance   1e-5;
    maxIter     1;
}

p
{
    type        split;

    solver
    {
        type    FFT;
    }
}
