FoamFile
{
    version     2.0;
    format      ascii;
    class       dictionary;
    object      briscolaSinglePhaseDict;
}

nu          0.001;
source      (0 0 0);
sourceCoeff (0 0 0);
