FoamFile
{
    version     2.0;
    format      ascii;
    class       dictionary;
    object      briscolaMeshDict;
}

vertices
(
    (0 0 0)
    (1 0 0)
    (0 1 0)
    (1 1 0)

    (0 0 1)
    (1 0 1)
    (0 1 1)
    (1 1 1)
);

bricks
(
    0
    {
        vertices    (((0 4)(2 6))((1 5)(3 7)));
        N           (16 16 1);
    }
);

edges
();

patches
();

decomposition
{
    type    manual;

    brickDecompositions
    (
        (2 4 1)
    );
}
