FoamFile
{
    version     2.0;
    format      ascii;
    class       dictionary;
    object      p;
}

boundaryConditions
{
    bottomAndTop
    {
        type        Neumann;
        gradient    0;
    }

    sides
    {
        type        Neumann;
        gradient    0;
    }
}
