FoamFile
{
    version     2.0;
    format      ascii;
    class       dictionary;
    location    "constant";
    object      fvOptions;
}

momentumSource
{
    type            vectorSemiImplicitSource;

    selectionMode   all;
    volumeMode      specific;

    injectionRateSuSp
    {
        U   ((1 0 0) 0);
    }
}
