FoamFile
{
    version     2.0;
    format      ascii;
    class       dictionary;
    object      f;
}

boundaryConditions
{
    walls
    {
        type        Neumann;
        gradients   (0);
    }

    inlet
    {
        type        Dirichlet;
        values      (1);
    }

    outlet
    {
        type        Dirichlet;
        values      (0);
    }

    frontAndBack
    {
        type        Dirichlet;
        values      (0.5);
    }
}
