FoamFile
{
    version     2.0;
    format      ascii;
    class       dictionary;
    object      U;
}

boundaryConditions
{
    walls
    {
        type        noSlip;
    }

    movingWall
    {
        type        Dirichlet;
        values      ((1 0 0));
    }
}
