FoamFile
{
    version     2.0;
    format      ascii;
    class       dictionary;
    object      briscolaMeshDict;
}

vertices
(
    (0 0 0)
    (0 0 1)
    (0 0 2)

    (0 1 0)
    (0 1 1)
    (0 1 2)

    (0 2 0)
    (0 2 1)
    (0 2 2)

    (1 0 0)
    (1 0 1)
    (1 0 2)

    (1 1 0)
    (1 1 1)
    (1 1 2)

    (1 2 0)
    (1 2 1)
    (1 2 2)

    (2 0 0)
    (2 0 1)
    (2 0 2)

    (2 1 0)
    (2 1 1)
    (2 1 2)

    (2 2 0)
    (2 2 1)
    (2 2 2)
);

bricks
(
    0
    {
        vertices    (1 10 4 13 0 9 3 12);
        N           (16 16 16);
    }

    1
    {
        vertices    (4 5 13 14 1 2 10 11);
        N           (16 16 16);
    }

    2
    {
        vertices    (3 4 6 7 12 13 15 16);
        N           (16 16 16);
    }

    3
    {
        vertices    (4 5 7 8 13 14 16 17);
        N           (16 16 16);
    }

    4
    {
        vertices    (9 10 12 13 18 19 21 22);
        N           (16 16 16);
    }

    5
    {
        vertices    (10 11 13 14 19 20 22 23);
        N           (16 16 16);
    }

    6
    {
        vertices    (12 13 15 16 21 22 24 25);
        N           (16 16 16);
    }

    7
    {
        vertices    (13 14 16 17 22 23 25 26);
        N           (16 16 16);
    }
);

edges
();

patches
();

decomposition
{
    type    manual;

    brickDecompositions
    (
        (1 1 1)
        (1 1 1)
        (1 1 1)
        (1 1 1)
        (1 1 1)
        (1 1 1)
        (1 1 1)
        (1 1 1)
    );
}
