FoamFile
{
    version     2.0;
    format      ascii;
    class       dictionary;
    location    "system";
    object      controlDict;
}

startFrom       latestTime;

startTime       0;

stopAt          endTime;

endTime         1;

deltaT          0.05;

writeControl    runTime;

writeInterval   0.2;

writeFormat     binary;

writePrecision  6;

timeFormat      general;

timePrecision   6;

runTimeModifiable true;

functions
{
    line
    {
        type            lineSample;
        writeControl    writeTime;
        start           (-0.1 0 0);
        end             ( 0.1 0 1);
        N               100;
        fields          (T);
    }
}
