FoamFile
{
    version     2.0;
    format      ascii;
    class       dictionary;
    object      briscolaMeshDict;
}

vertices
(
    (0 0    0)
    (1 0    0)
    (0 1.5  0)
    (1 1.5  0)

    (0 0    4)
    (1 0    4)
    (0 1.5  4)
    (1 1.5  4)
);

bricks
(
    0
    {
        vertices    (((0 4)(2 6))((1 5)(3 7)));
//        N           (32 64 96);
        N           (16 32 48);
    }
);

edges
();

patches
();

decomposition
{
    type    manual;

    brickDecompositions
    (
        (2 2 1)
    );
}
