FoamFile
{
    version     2.0;
    format      ascii;
    class       dictionary;
    object      briscolaSchemesDict;
}

U
{
    type        iterative;
    relTol      0.001;
    tolerance   1e-8;
    maxIter     1;
}

p
{
    type        FFT;
}
