FoamFile
{
    version     2.0;
    format      ascii;
    class       dictionary;
    object      briscolaMeshDict;
}

vertices
(
    (0          0   0)
    (12.566371  0   0)
    (0          1   0)
    (12.566371  1   0)

    (0          0   6.2831853)
    (12.566371  0   6.2831853)
    (0          1   6.2831853)
    (12.566371  1   6.2831853)
);

bricks
(
    0
    {
        vertices    (0 4 2 6 1 5 3 7);
        N           (256 64 128);
    }
);

edges
();

patches
(
    inlet
    {
        type        periodic;
        neighbor    outlet;

        faces
        (
            (0 2 4 6)
        );
    }

    outlet
    {
        type        periodic;
        neighbor    inlet;

        faces
        (
            (1 3 5 7)
        );
    }

    aft
    {
        type        periodic;
        neighbor    fore;

        faces
        (
            (0 1 2 3)
        );
    }

    fore
    {
        type        periodic;
        neighbor    aft;

        faces
        (
            (4 5 6 7)
        );
    }

    top
    {
        type    patch;

        faces
        (
            (2 3 6 7)
        );
    }

    bottom
    {
        type    patch;

        faces
        (
            (0 1 4 5)
        );
    }
);

decomposition
{
    type    manual;

    brickDecompositions
    (
        (8 2 4)
    );
}
