FoamFile
{
    version     2.0;
    format      ascii;
    class       dictionary;
    object      briscolaMeshDict;
}

vertices
(
    (-0.55 -0.55 0)
    ( 0.55 -0.55 0)
    (-0.55 0.55 0)
    ( 0.55 0.55 0)

    (-0.55 -0.55 16)
    ( 0.55 -0.55 16)
    (-0.55 0.55 16)
    ( 0.55 0.55 16)
);

bricks
(
    0
    {
        vertices    (0 4 2 6 1 5 3 7);
        N           (24 24 192);
    }
);

edges
();

patches
(
    inlet
    {
        type        periodic;
        neighbor    outlet;

        faces
        (
            (0 1 2 3)
        );
    }

    outlet
    {
        type        periodic;
        neighbor    inlet;

        faces
        (
            (4 5 6 7)
        );
    }


    sides
    {
        type    patch;

        faces
        (
            (1 3 5 7)
            (2 3 6 7)
            (0 1 4 5)
            (0 2 4 6)
        );
    }
);

immersedBoundaries
{
    wall
    {
        cylinder1
        {
            type        cylinder;
            start       (0 0 0);
            end         (0 0 16);
            radius      0.5;
            inverted    true;
        }
    }
}

decomposition
{
    type    manual;

    brickDecompositions
    (
        (1 1 8)
    );
}
