FoamFile
{
    version     2.0;
    format      ascii;
    class       dictionary;
    object      T;
}

boundaryConditions
{
    walls
    {
        type        Dirichlet;
        value       0;
    }
}
