FoamFile
{
    version     2.0;
    format      ascii;
    class       dictionary;
    location    "system";
    object      controlDict;
}

startFrom       latestTime;

startTime       0;

stopAt          endTime;

endTime         20;

deltaT          0.001;

writeControl    adjustableRunTime;

writeInterval   10;

writeFormat     binary;

writePrecision  6;

timeFormat      general;

timePrecision   6;

runTimeModifiable true;

adjustTimeStep  true;

maxCo           0.5;

functions
{
    y
    {
        type            lineSample;
        writeControl    writeTime;
        start           (4 -0.5 0);
        end             (4  0.5 0);
        N               100;
        fields          (p U);
    }
}
