FoamFile
{
    version     2.0;
    format      ascii;
    class       dictionary;
    object      briscolaMeshDict;
}

vertices
(
    (0 0 0)
    (1 0 0)
    (0 1 0)
    (1 1 0)

    (0 0 1)
    (1 0 1)
    (0 1 1)
    (1 1 1)
);

bricks
(
    0
    {
        vertices    (((0 4)(2 6))((1 5)(3 7)));
        N           (16 16 16);
    }
);

edges
();

patches
(
    left
    {
        type patch;
        faces
        (
            (0 2 6 4)
        );
    }

    right
    {
        type patch;
        faces
        (
            (3 1 5 7)
        );
    }

    bottom
    {
        type patch;
        faces
        (
            (3 2 0 1)
        );
    }

    top
    {
        type patch;
        faces
        (
            (5 4 6 7)
        );
    }

    back
    {
        type patch;
        faces
        (
            (2 3 7 6)
        );
    }

    front
    {
        type patch;
        faces
        (
            (1 0 4 5)
        );
    }
);

decomposition
{
    type    manual;

    brickDecompositions
    (
        (2 2 2)
    );
}
