FoamFile
{
    version     2.0;
    format      ascii;
    class       dictionary;
    object      briscolaMeshDict;
}

vertices
(
    (0 0 0)
    (1 0 0)
    (0 0.5 0)
    (1 0.5 0)
    (0 1 0)
    (1 1 0)

    (0 0 1)
    (1 0 1)
    (0 0.5 1)
    (1 0.5 1)
    (0 1 1)
    (1 1 1)
);

bricks
(
    0
    {
        vertices    (((0 6)(2 8))((1 7)(3 9)));
        N           (32 16 32);
        grading     geometric (1 1 1);
    }
    1
    {
        vertices    (((2 8)(4 10))((3 9)(5 11)));
        N           (32 16 32);
        grading     geometric (1 1 1);
    }
);

edges
();

patches
(
    left
    {
        type        patch;

        faces
        (
            (0 2 6 8)
            (2 4 8 10)
        );
    }

    right
    {
        type        patch;

        faces
        (
            (1 3 7 9)
            (3 5 9 11)
        );
    }

    bottom
    {
        type    patch;

        faces
        (
            (0 1 6 7)
        );
    }

    top
    {
        type    patch;

        faces
        (
            (4 5 10 11)
        );
    }

    back
    {
        type        patch;

        faces
        (
            (0 1 2 3)
            (2 3 4 5)
        );
    }

    front
    {
        type        patch;

        faces
        (
            (6 7 8 9)
            (8 9 10 11)
        );
    }
);

decomposition
{
    type    manual;

    brickDecompositions
    (
        (1 2 2)
        (1 2 2)
    );
}
