FoamFile
{
    version     2.0;
    format      ascii;
    class       dictionary;
    object      briscolaMeshDict;
}

vertices
(
    (0 0 0)
    (1 0 0)
    (0 0.5 0)
    (1 0.5 0)
    (0 1 0)
    (1 1 0)

    (0 0 1)
    (1 0 1)
    (0 0.5 1)
    (1 0.5 1)
    (0 1 1)
    (1 1 1)
);

bricks
(
    0
    {
        vertices    (0 6 4 10 1 7 5 11);
        N           (16 64 32);
        grading     geometric VARSTRETCH;
    }
);

edges
();

patches
(
    left
    {
        type        patch;

        faces
        (
            (0 4 6 10)
        );
    }

    right
    {
        type        patch;

        faces
        (
            (1 5 7 11)
        );
    }

    back
    {
        type        patch;

        faces
        (
            (0 1 4 5)
        );
    }

    front
    {
        type        patch;

        faces
        (
            (6 7 10 11)
        );
    }

    top
    {
        type    patch;

        faces
        (
            (4 5 10 11)
        );
    }

    bottom
    {
        type    patch;

        faces
        (
            (0 1 6 7)
        );
    }
);

decomposition
{
    type    manual;

    brickDecompositions
    (
        VARDECOMP
    );
}
