FoamFile
{
    version     2.0;
    format      ascii;
    class       dictionary;
    object      briscolaSchemesDict;
}

T
{
    type        MG;
    relTol      0.01;
    tolerance   1e-8;
    maxIter     100;
}
