FoamFile
{
    version     2.0;
    format      ascii;
    class       dictionary;
    object      briscolaStaggeredDict;
}

source      (0.5 0 0);
sourceCoeff (0 0 0);
colocatedReconstruction true;
