FoamFile
{
    version     2.0;
    format      ascii;
    class       dictionary;
    object      briscolaMeshDict;
}

vertices
(
    (-0.020  -0.0010  0.0) //0
    ( 0.020  -0.0010  0.0) //1
    (-0.020   0.0010  0.0) //2
    ( 0.020   0.0010  0.0) //3

    (-0.020  -0.0010  0.1) //4
    ( 0.020  -0.0010  0.1) //5
    (-0.020   0.0010  0.1) //6
    ( 0.020   0.0010  0.1) //7
);

bricks
(
    0
    {
        vertices    (0 4 2 6 1 5 3 7);
        N           (64 1 192);
    }
);

edges
();

patches
(
    walls
    {
        type    patch;

        faces
        (
            (3 1 5 7)
            (0 2 6 4)
        );
    }

    empty
    {
        type empty;

        faces
        (
            (1 0 4 5)
            (2 3 7 6)
        );
    }

    inlet
    {
        type    periodic;
        neighbor outlet;

        faces
        (
            (0 1 3 2)
        );
    }

    outlet
    {
        type    periodic;
        neighbor inlet;

        faces
        (
            (4 5 7 6)
        );
    }
);

decomposition
{
    type    manual;

    brickDecompositions
    (
        (2 1 3)
    );
}
