FoamFile
{
    version     2.0;
    format      ascii;
    class       dictionary;
    object      blockMeshDict;
}

convertToMeters 1;

vertices
(
    (0         -1 0)
    (12.566371 -1 0)
    (0          0 0)
    (12.566371  0 0)
    (0          1 0)
    (12.566371  1 0)

    (0         -1 6.2831853)
    (12.566371 -1 6.2831853)
    (0          0 6.2831853)
    (12.566371  0 6.2831853)
    (0          1 6.2831853)
    (12.566371  1 6.2831853)
);

blocks
(
    hex (0 1 3 2 6 7 9 8) (64 16 32) simpleGrading (1 1 1)
    hex (2 3 5 4 8 9 11 10) (64 16 32) simpleGrading (1 1 1)
);

edges
(
);

boundary
(
    walls
    {
        type wall;
        faces
        (
            (0 1 7 6)
            (10 11 5 4)
        );
    }

    inlet
    {
        type            cyclic;
        neighbourPatch  outlet;
        faces
        (
            (10 4 2 8)
            (8 2 0 6)
        );
    }

    
    outlet
    {
        type            cyclic;
        neighbourPatch  inlet;
        faces
        (
            (5 11 9 3)
            (3 9 7 1)
        );
    }

    aft
    {
        type            cyclic;
        neighbourPatch  fore;
        faces
        (
            (4 5 3 2)
            (2 3 1 0)
        );
    }

    fore
    {
        type            cyclic;
        neighbourPatch  aft;
        faces
        (
            (11 10 8 9)
            (9 8 6 7)
        );
    }
);

mergePatchPairs
(
);
