FoamFile
{
    version     2.0;
    format      ascii;
    class       dictionary;
    location    "system";
    object      fvSolution;
}

solvers
{
    p
    {
        solver          GAMG;
        tolerance       1e-8;
        relTol          0.01;
        smoother        GaussSeidel;
        maxIter         100;
    }

    pFinal
    {
        $p;
    }

    U
    {
        solver          smoothSolver;
        smoother        symGaussSeidel;
        tolerance       1e-8;
        relTol          0.01;
        maxIter         100;
    }

    UFinal
    {
        $U;
    }
}

PIMPLE
{
    pRefCell        0;
    pRefValue       0;
}
