FoamFile
{
    version     2.0;
    format      ascii;
    class       dictionary;
    location    "system";
    object      controlDict;
}

startFrom       latestTime;

startTime       0;

stopAt          endTime;

endTime         30;

deltaT          0.001;

writeControl    adjustableRunTime;

writeInterval   10;

writeFormat     binary;

writePrecision  6;

timeFormat      general;

timePrecision   6;

runTimeModifiable true;

adjustTimeStep  true;

maxCo           0.5;

libs
(
    "code/libcode.so"
);

functions
{
    init
    {
        type    initialCondition;
    }
}
