FoamFile
{
    version     2.0;
    format      ascii;
    class       dictionary;
    object      p;
}

boundaryConditions
{
    default
    {
        type    Dirichlet;
        value   0;
    }

    left
    {
        type    Dirichlet;
        value   1;
    }

    right
    {
        type    Dirichlet;
        value   2;
    }

    bottom
    {
        type    Neumann;
        gradient   3;
    }

    top
    {
        type    Neumann;
        gradient   4;
    }

    back
    {
        type    Neumann;
        gradient   5;
    }

    front
    {
        type    Dirichlet;
        value   6;
    }
}
