FoamFile
{
    version     2.0;
    format      ascii;
    class       dictionary;
    object      briscolaSchemesDict;
}


laplacianSchemes
{
    laplacian(p)
    {
        type    linearGauss;
    }

    laplacian(f)
    {
        type    linearGauss;
    }
}