FoamFile
{
    version     2.0;
    format      ascii;
    class       dictionary;
    object      p;
}

initialCondition
{

}

boundaryConditions
{
    default
    {
        type    Dirichlet;
        value   0;
    }

    left
    {
        type    Dirichlet;
        value   0;
    }

    right
    {
        type    Dirichlet;
        value   0;
    }

    bottom
    {
        type    Neumann;
        gradient   0;
    }

    top
    {
        type    Neumann;
        gradient   0;
    }

    back
    {
        type    empty;
    }

    front
    {
        type    empty;
    }
}
