FoamFile
{
    version     2.0;
    format      ascii;
    class       dictionary;
    object      U;
}

initialCondition
{

}

boundaryConditions
{
    walls
    {
        type        Dirichlet;
        value       (0 0 0);
    }

    inlet
    {
        type        periodic;
    }

    outlet
    {
        type        periodic;
    }

    pipeWall
    {
        type        penalizationDirichlet;
        value       (0 0 0);
        massSource  false;
    }
}
