FoamFile
{
    version     2.0;
    format      ascii;
    class       dictionary;
    object      briscolaMeshDict;
}

vertices
(
    (-0.1 -0.1 0)
    (0.1 -0.1 0)
    (-0.1 0.1 0)
    (0.1 0.1 0)
    (-0.3535534 -0.3535534 0)
    (0.3535534 -0.3535534 0)
    (-0.3535534 0.3535534 0)
    (0.3535534 0.3535534 0)

    (-0.1 -0.1 1.0)
    (0.1 -0.1 1.0)
    (-0.1 0.1 1.0)
    (0.1 0.1 1.0)
    (-0.3535534 -0.3535534 1.0)
    (0.3535534 -0.3535534 1.0)
    (-0.3535534 0.3535534 1.0)
    (0.3535534 0.3535534 1.0)
);

bricks
(
    0
    {
        vertices    (((0 8)(2 10))((1 9)(3 11)));
        N           (16 16 32);
    }

    1
    {
        vertices    (((4 12)(0 8))((5 13)(1 9)));
        N           (16 16 32);
    }

    2
    {
        vertices    (((4 12)(6 14))((0 8)(2 10)));
        N           (16 16 32);
    }

    3
    {
        vertices    (((1 9)(3 11))((5 13)(7 15)));
        N           (16 16 32);
    }

    4
    {
        vertices    (((2 10)(6 14))((3 11)(7 15)));
        N           (16 16 32);
    }
);

edges
(
    (4 5)
    {
        type    arc;
        point   (0 -0.5 0);
    }

    (5 7)
    {
        type    arc;
        point   (0.5 0 0);
    }

    (7 6)
    {
        type    arc;
        point   (0 0.5 0);
    }

    (6 4)
    {
        type    arc;
        point   (-0.5 0 0);
    }

    (12 13)
    {
        type    arc;
        point   (0 -0.5 1.0);
    }

    (13 15)
    {
        type    arc;
        point   (0.5 0 1.0);
    }

    (14 15)
    {
        type    arc;
        point   (0 0.5 1.0);
    }

    (14 12)
    {
        type    arc;
        point   (-0.5 0 1.0);
    }
);

patches
(
    inlet
    {
        type    patch;

        faces
        (
            (0 1 2 3)
            (4 5 0 1)
            (4 0 6 2)
            (1 5 3 7)
            (2 3 6 7)
        );
    }

    outlet
    {
        type    patch;

        faces
        (
            (8 9 10 11)
            (12 13 8 9)
            (12 8 14 10)
            (9 13 15 11)
            (10 11 14 15)
        );
    }
);

decomposition
{
    type    manual;

    brickDecompositions
    (
        (1 1 1)
        (1 1 1)
        (1 1 1)
        (1 1 1)
        (1 1 1)
    );
}
