FoamFile
{
    version     2.0;
    format      ascii;
    class       dictionary;
    object      alpha;
}

boundaryConditions
{
    default
    {
        type        Neumann;
        gradients   (0);
    }
}
