FoamFile
{
    version     2.0;
    format      ascii;
    class       dictionary;
    object      briscolaSchemesDict;
}

gradientSchemes
{
    default midPointGauss;
}

faceFluxSchemes
{
    default midPoint;
}
